# generated using pymatgen
data_ZnP2(HO3)2
_symmetry_space_group_name_H-M   'P 1'
_cell_length_a   7.72000000
_cell_length_b   9.32000000
_cell_length_c   9.79000000
_cell_angle_alpha   107.56000000
_cell_angle_beta   107.49000000
_cell_angle_gamma   92.86000000
_symmetry_Int_Tables_number   1
_chemical_formula_structural   ZnP2(HO3)2
_chemical_formula_sum   'Zn2 P4 H4 O12'
_cell_volume   632.82400543
_cell_formula_units_Z   2
loop_
 _symmetry_equiv_pos_site_id
 _symmetry_equiv_pos_as_xyz
  1  'x, y, z'
loop_
 _atom_site_type_symbol
 _atom_site_label
 _atom_site_symmetry_multiplicity
 _atom_site_fract_x
 _atom_site_fract_y
 _atom_site_fract_z
 _atom_site_occupancy
  O  O0  1  0.50340000  0.49950000  0.81120000  1
  O  O1  1  0.21930000  0.40500000  0.60250000  1
  O  O2  1  0.24030000  0.35790000  0.83540000  1
  H  H3  1  0.38550000  0.28120000  0.70110000  1
  P  P4  1  0.34070000  0.37730000  0.73720000  1
  O  O5  1  0.49660000  0.50050000  0.18880000  1
  O  O6  1  0.78070000  0.59500000  0.39750000  1
  O  O7  1  0.75970000  0.64210000  0.16460000  1
  P  P8  1  0.65930000  0.62270000  0.26280000  1
  H  H9  1  0.61450000  0.71880000  0.29890000  1
  Zn  Zn10  1  0.26497000  0.48960000  0.03919000  1
  O  O11  1  0.10350000  0.39500000  0.10550000  1
  O  O12  1  0.90440000  0.18040000  0.11380000  1
  O  O13  1  0.78220000  0.30850000  0.94530000  1
  P  P14  1  0.94070000  0.25960000  0.02020000  1
  H  H15  1  0.97640000  0.18660000  0.94180000  1
  Zn  Zn16  1  0.73503000  0.51040000  0.96081000  1
  O  O17  1  0.89650000  0.60500000  0.89450000  1
  O  O18  1  0.09560000  0.81960000  0.88620000  1
  O  O19  1  0.21780000  0.69150000  0.05470000  1
  P  P20  1  0.05930000  0.74040000  0.97980000  1
  H  H21  1  0.02360000  0.81340000  0.05820000  1
